6
	Energy:  -87084.6301041
C          0.83618        0.00831       -0.00012
H          1.20821       -0.83527       -0.56159
H          1.17927        0.92522       -0.45491
H          1.19564       -0.04738        1.01614
F         -0.56773       -0.01481        0.00017
H         -3.49061        0.04085       -0.00043
