6
	Energy:      -4.5621945
O         -3.77604       -0.24186        0.07107
H         -2.87597        0.05663        0.27472
H         -4.31769        0.36554        0.60696
O         -4.38133        2.48204        1.67871
H         -3.87001        3.20521        1.27287
H         -4.98835        2.95652        2.26748
